<routes>
    <vType id="car" accel="2.6" decel="4.5" sigma="0.5" length="4.5" minGap="2.5" maxSpeed="13.9" guiShape="passenger" />
    <route id="r0" edges="-150.13.85 -150.24.67 -150.35.27 -115.0.00 -115.36.52 -115.47.73 -115.56.53 -115.76.04 124.10.91 124.7.99 124.5.11 124.0.00 123.0.00 120.21.32 120.18.84 120.16.41 120.0.00 -145.0.00 89.58.57 89.45.84 89.32.66 89.0.00 88.0.00 87.0.00 32.0.00 28.61.75 28.27.82 28.15.89 28.4.23 28.0.00 27.0.00 -11.0.00" />
    <route id="r1" edges="-82.0.00 156.0.00 129.0.00 131.0.00 130.0.00 -99.0.00 43.0.00 42.0.00 38.49.05 38.44.19 38.39.41 38.0.00 -20.0.00 -154.0.00 -155.0.00 -150.0.00 -150.13.85 -150.24.67 -150.35.27 -115.0.00 -115.36.52 -115.47.73 -115.56.53 -115.76.04 -80.0.00 -81.0.00 -6.0.00 -6.78.63 -6.82.60 -6.86.61" />
    <route id="r2" edges="-59.0.00 -59.12.92 -59.23.90 -59.258.05 -59.266.39 -59.274.76 -53.0.00 53.0.00 52.0.00 -68.0.00 -68.20.24 -68.35.15 -68.52.20 6.86.61 6.82.60 6.78.63 6.0.00 81.0.00 80.0.00 124.10.91 124.7.99 124.5.11 124.0.00 123.0.00 120.21.32 120.18.84 120.16.41 120.0.00 -145.0.00 89.58.57 89.45.84 89.32.66 89.0.00 88.0.00 146.0.00 -12.0.00 -119.0.00 148.0.00 49.0.00 159.0.00 11.0.00 -27.0.00 143.0.00 142.0.00 79.0.00 44.0.00 -133.0.00 -83.0.00 -83.4.05 -137.0.00 -138.0.00 -132.0.00 132.0.00 138.0.00 137.0.00 83.4.05 83.0.00 133.0.00 -38.0.00 -38.39.41 -38.44.19 -38.49.05 -42.0.00 -43.0.00 99.0.00 -130.0.00 -131.0.00 -129.0.00 -156.0.00 33.0.00 -134.0.00 -22.0.00 -96.0.00 100.0.00 -17.0.00 -17.3.13 -17.10.55" />
    <route id="r3" edges="-147.0.00 147.0.00 48.0.00 96.0.00 22.0.00 134.0.00 -33.0.00 156.0.00 129.0.00 131.0.00 130.0.00 -99.0.00 43.0.00 42.0.00 38.49.05 38.44.19 38.39.41 38.0.00 -20.0.00 -154.0.00 -155.0.00 -150.0.00 -150.13.85 -150.24.67 -150.35.27 -115.0.00 -115.36.52 -115.47.73 -115.56.53 -115.76.04 -80.0.00 -81.0.00 -6.0.00 -6.78.63 -6.82.60 -6.86.61 68.52.20" />
    <route id="r4" edges="-138.0.00 -132.0.00 132.0.00 138.0.00 137.0.00 83.4.05 83.0.00 133.0.00 -38.0.00 -38.39.41 -38.44.19 -38.49.05 -42.0.00 -43.0.00 99.0.00 -130.0.00 -131.0.00 -129.0.00 -156.0.00 82.0.00 -102.0.00 21.0.00 127.0.00 17.18.21 17.10.55 17.3.13 17.0.00 -100.0.00 96.0.00 22.0.00 134.0.00 -33.0.00 156.0.00" />
    <route id="r5" edges="-114.0.00 128.0.00 11.0.00 -27.0.00 -28.0.00 -28.4.23 -28.15.89 -28.27.82 -28.61.75 -32.0.00 -87.0.00 -88.0.00 -89.0.00 -89.32.66 -89.45.84 -89.58.57 145.0.00 -120.0.00 -120.16.41 -120.18.84 -120.21.32 -123.0.00 -112.0.00" />
    <route id="r6" edges="-142.0.00 -143.0.00 77.0.00 -45.0.00 128.0.00 11.0.00 -27.0.00 -28.0.00 -28.4.23 -28.15.89 -28.27.82 -28.61.75 -32.0.00 -87.0.00 -88.0.00 -89.0.00 -89.32.66 -89.45.84 -89.58.57 145.0.00 -120.0.00 -120.16.41 -120.18.84 -120.21.32 -123.0.00 -124.0.00 -124.5.11 -124.7.99 -124.10.91 -80.0.00 -81.0.00 -6.0.00 -6.78.63 -6.82.60 -6.86.61 68.52.20 68.35.15 68.20.24 68.0.00 -52.0.00 -53.0.00" />
    <route id="r7" edges="-59.274.76 -53.0.00 53.0.00 52.0.00" />
    <route id="r8" edges="-110.0.00 142.0.00 79.0.00 44.0.00 -133.0.00 -83.0.00 -83.4.05 -137.0.00 -138.0.00 -132.0.00 132.0.00 138.0.00 137.0.00 83.4.05" />
    <route id="r9" edges="-45.0.00 128.0.00 11.0.00 -27.0.00 -28.0.00 -28.4.23 -28.15.89 -28.27.82 -28.61.75 -32.0.00 -87.0.00 -88.0.00 -89.0.00 -89.32.66 -89.45.84 -89.58.57 145.0.00 -120.0.00 -120.16.41 -120.18.84 -120.21.32 -123.0.00 -124.0.00 -124.5.11 -124.7.99 -124.10.91 -80.0.00 -81.0.00 -6.0.00 -6.78.63 -6.82.60 -6.86.61 68.52.20" />
    <route id="r10" edges="154.0.00 20.0.00 -44.0.00 -79.0.00 -142.0.00 -143.0.00 77.0.00 -45.0.00 128.0.00 11.0.00 -27.0.00 143.0.00 142.0.00 79.0.00 44.0.00 -133.0.00 -83.0.00 -83.4.05 -137.0.00 -138.0.00 -132.0.00 132.0.00 138.0.00 137.0.00 83.4.05 83.0.00 133.0.00 -38.0.00 -38.39.41 -38.44.19 -38.49.05 -42.0.00 -43.0.00 99.0.00 -130.0.00 -131.0.00 -129.0.00 -156.0.00 82.0.00 -102.0.00 -54.0.00" />
    <route id="r11" edges="23.0.00 -23.0.00 -24.0.00 -35.0.00 -36.0.00 36.0.00 35.0.00 158.0.00 -2.0.00 45.0.00 -77.0.00 143.0.00 142.0.00 79.0.00 44.0.00 -133.0.00 -83.0.00 -83.4.05 -137.0.00 -138.0.00 -132.0.00 132.0.00 138.0.00 137.0.00 83.4.05 83.0.00 133.0.00 -38.0.00 -38.39.41 -38.44.19 -38.49.05 -42.0.00 -43.0.00 99.0.00 -130.0.00 -131.0.00 -129.0.00 -156.0.00 33.0.00 -134.0.00 -22.0.00 -96.0.00 100.0.00 -17.0.00 -17.3.13 -17.10.55 -17.18.21 -127.0.00 -21.0.00 102.0.00 -82.0.00" />
    <route id="r12" edges="-100.0.00 96.0.00 22.0.00 134.0.00 -33.0.00 156.0.00 129.0.00 131.0.00 130.0.00 -99.0.00 43.0.00 42.0.00 38.49.05 38.44.19 38.39.41 38.0.00 -20.0.00 -154.0.00 -155.0.00 -150.0.00 -150.13.85 -150.24.67 -150.35.27 101.0.00 -26.0.00" />
    <route id="r13" edges="156.0.00 129.0.00 131.0.00 130.0.00 -99.0.00 43.0.00 42.0.00 38.49.05 38.44.19 38.39.41 38.0.00 -20.0.00 -154.0.00 -155.0.00 -150.0.00 -150.13.85 -150.24.67 -150.35.27 -115.0.00 -115.36.52 -115.47.73 -115.56.53 -115.76.04 -5.0.00 5.0.00 115.76.04 115.56.53 115.47.73" />
    <route id="r14" edges="-83.4.05 -137.0.00 -138.0.00 -132.0.00 132.0.00 138.0.00 137.0.00 83.4.05 83.0.00 133.0.00 -44.0.00 -79.0.00 -142.0.00 -143.0.00 77.0.00 -45.0.00 2.0.00 -158.0.00 -35.0.00 -36.0.00 36.0.00 35.0.00 24.0.00 23.0.00 -23.0.00 -24.0.00" />
    <route id="r15" edges="-54.0.00 -54.43.01 -54.50.44 -54.58.11 -59.0.00 -59.12.92 -59.23.90 -59.258.05 -59.266.39 -59.274.76 -53.0.00 53.0.00 52.0.00 -68.0.00 -68.20.24 -68.35.15 -68.52.20 6.86.61 6.82.60 6.78.63 6.0.00 81.0.00 80.0.00 115.76.04 115.56.53 115.47.73 115.36.52 115.0.00" />
    <route id="r16" edges="-147.0.00 147.0.00 48.0.00 100.0.00 -17.0.00 -17.3.13 -17.10.55 -17.18.21 -37.0.00 37.0.00 103.0.00 -140.0.00" />
    <route id="r17" edges="135.0.00 150.35.27 150.24.67 150.13.85 150.0.00 155.0.00 154.0.00 20.0.00 -44.0.00 -79.0.00 -142.0.00" />
    <route id="r18" edges="124.10.91 124.7.99 124.5.11 124.0.00 -112.0.00 112.0.00 -124.0.00 -124.5.11 -124.7.99 -124.10.91 115.76.04" />
    <route id="r19" edges="-77.0.00 143.0.00 110.0.00 -110.0.00 -143.0.00 77.0.00 -45.0.00 128.0.00 11.0.00 -27.0.00 -28.0.00 -28.4.23 -28.15.89 -28.27.82 -28.61.75 -32.0.00 -87.0.00 146.0.00 -12.0.00 -119.0.00" />
    <route id="r20" edges="28.4.23 28.0.00 27.0.00 -11.0.00 -159.0.00 -49.0.00 -148.0.00 119.0.00 12.0.00 -146.0.00 -88.0.00 -89.0.00 -89.32.66 -89.45.84 -89.58.57 145.0.00 -120.0.00 -120.16.41 -120.18.84 -120.21.32 -123.0.00 -124.0.00 -124.5.11 -124.7.99 -124.10.91 -80.0.00 -81.0.00 -6.0.00 -6.78.63 -6.82.60 -6.86.61 68.52.20 68.35.15 68.20.24 68.0.00 -52.0.00 -65.0.00 65.0.00" />
    <route id="r21" edges="-156.0.00 82.0.00 -102.0.00 21.0.00 127.0.00 17.18.21 17.10.55 17.3.13 17.0.00 -100.0.00 96.0.00 22.0.00 134.0.00 -33.0.00 156.0.00 129.0.00 131.0.00" />
    <route id="r22" edges="-134.0.00 -22.0.00 -96.0.00 100.0.00 -17.0.00 -17.3.13 -17.10.55 -17.18.21 -127.0.00 -21.0.00 102.0.00 -82.0.00 156.0.00 129.0.00 131.0.00 130.0.00 -99.0.00 43.0.00 42.0.00 38.49.05 38.44.19 38.39.41 38.0.00 -44.0.00 -79.0.00 -142.0.00 -143.0.00 77.0.00 -45.0.00 128.0.00 11.0.00 -27.0.00 143.0.00 142.0.00 79.0.00" />
    <route id="r23" edges="-96.0.00 100.0.00 -17.0.00 -17.3.13 -17.10.55 -17.18.21 -127.0.00 -21.0.00 102.0.00 -82.0.00 156.0.00 129.0.00 131.0.00 130.0.00 -99.0.00 43.0.00 42.0.00 38.49.05 38.44.19 38.39.41 38.0.00 -20.0.00 -154.0.00 -155.0.00 -150.0.00 -150.13.85 -150.24.67 -150.35.27 -115.0.00 -115.36.52 -115.47.73 -115.56.53 -115.76.04 124.10.91" />
    <route id="r24" edges="96.0.00 22.0.00 134.0.00 -33.0.00 156.0.00 129.0.00 131.0.00 130.0.00 -99.0.00 43.0.00 42.0.00 38.49.05 38.44.19 38.39.41 38.0.00 -133.0.00 -83.0.00 -83.4.05 -137.0.00 -138.0.00 -132.0.00 132.0.00 138.0.00 137.0.00 83.4.05 83.0.00 133.0.00 -38.0.00 -38.39.41 -38.44.19 -38.49.05" />
    <route id="r25" edges="-129.0.00 -156.0.00 82.0.00 -102.0.00 21.0.00 127.0.00 17.18.21 17.10.55 17.3.13 17.0.00 -100.0.00 96.0.00 22.0.00 134.0.00 -33.0.00 156.0.00 129.0.00 131.0.00 130.0.00 -99.0.00 43.0.00 42.0.00 38.49.05 38.44.19 38.39.41 38.0.00 -20.0.00 -154.0.00 -155.0.00 -150.0.00 -150.13.85 -150.24.67 -150.35.27 -115.0.00 -115.36.52 -115.47.73 -115.56.53 -115.76.04 124.10.91 124.7.99 124.5.11 124.0.00 123.0.00 120.21.32 120.18.84 120.16.41 120.0.00 -145.0.00 89.58.57 89.45.84 89.32.66 89.0.00 88.0.00 146.0.00 -12.0.00" />
    <route id="r26" edges="-59.23.90 -59.258.05 -59.266.39 -59.274.76 -53.0.00 53.0.00 52.0.00 -68.0.00 -68.20.24 -68.35.15 -68.52.20 6.86.61 6.82.60 6.78.63 6.0.00 81.0.00 80.0.00 124.10.91 124.7.99 124.5.11 124.0.00 123.0.00 120.21.32 120.18.84 120.16.41 120.0.00 -145.0.00 89.58.57 89.45.84 89.32.66 89.0.00 88.0.00 87.0.00 32.0.00 -66.0.00 66.0.00 -32.0.00 -87.0.00 -88.0.00 -89.0.00" />
    <route id="r27" edges="-134.0.00 -22.0.00 -96.0.00 100.0.00 -17.0.00 -17.3.13 -17.10.55 -17.18.21 -127.0.00 -21.0.00 -54.0.00 -54.43.01 -54.50.44 -54.58.11 -59.0.00 -59.12.92 -59.23.90 -59.258.05" />
    <route id="r28" edges="-146.0.00 87.0.00 32.0.00 28.61.75 28.27.82 28.15.89 28.4.23 28.0.00 27.0.00 -11.0.00 -128.0.00 45.0.00 -77.0.00 143.0.00 142.0.00 79.0.00 44.0.00 -133.0.00 -83.0.00 -83.4.05 -137.0.00 -138.0.00 -132.0.00 132.0.00" />
    <route id="r29" edges="-83.4.05 -137.0.00 -138.0.00 -132.0.00 132.0.00 138.0.00 137.0.00 83.4.05 83.0.00 133.0.00 -20.0.00 -154.0.00 -155.0.00 -150.0.00 -150.13.85 -150.24.67 -150.35.27 -115.0.00 -115.36.52 -115.47.73 -115.56.53 -115.76.04 124.10.91 124.7.99 124.5.11 124.0.00 123.0.00 120.21.32 120.18.84 120.16.41 120.0.00 -145.0.00 89.58.57 89.45.84 89.32.66 89.0.00 88.0.00 87.0.00 32.0.00 28.61.75 28.27.82 28.15.89 28.4.23 28.0.00" />
    <route id="r30" edges="127.0.00 17.18.21 17.10.55 17.3.13 17.0.00 -100.0.00 96.0.00 22.0.00 134.0.00 -33.0.00 156.0.00 129.0.00 131.0.00 130.0.00 -99.0.00 43.0.00 42.0.00 38.49.05 38.44.19 38.39.41 38.0.00 -44.0.00 -79.0.00 -142.0.00 -143.0.00 77.0.00 -45.0.00 128.0.00 11.0.00 -27.0.00 -28.0.00" />
    <route id="r31" edges="130.0.00 -99.0.00 43.0.00 42.0.00 38.49.05 38.44.19 38.39.41 38.0.00 -20.0.00 -154.0.00 -155.0.00 -150.0.00 -150.13.85 -150.24.67 -150.35.27 -115.0.00 -115.36.52 -115.47.73 -115.56.53 -115.76.04 124.10.91 124.7.99 124.5.11 124.0.00 123.0.00 120.21.32 120.18.84" />
    <route id="r32" edges="-51.0.00 -15.0.00 -110.0.00 -143.0.00 77.0.00 -45.0.00 2.0.00 -158.0.00 -108.0.00 -109.0.00 -73.0.00 -74.0.00 -75.0.00" />
    <route id="r33" edges="-130.0.00 -3.0.00 3.0.00 130.0.00 -99.0.00 43.0.00 42.0.00 38.49.05 38.44.19 38.39.41 38.0.00 -44.0.00 -79.0.00 -142.0.00 -143.0.00 77.0.00 -45.0.00 128.0.00 11.0.00 -27.0.00 -28.0.00 -28.4.23 -28.15.89 -28.27.82 -28.61.75" />
    <route id="r34" edges="6.86.61 6.82.60 6.78.63 6.0.00 81.0.00 80.0.00 -5.0.00 5.0.00 -80.0.00 -81.0.00 -6.0.00 -6.78.63 -6.82.60 -6.86.61" />
    <route id="r35" edges="-28.27.82 -28.61.75 -32.0.00 -87.0.00 -88.0.00 -89.0.00 -89.32.66 -89.45.84 -89.58.57 -153.0.00 153.0.00 89.58.57 89.45.84 89.32.66 89.0.00 88.0.00 87.0.00 32.0.00 28.61.75" />
    <route id="r36" edges="135.0.00 150.35.27 150.24.67 150.13.85 150.0.00 155.0.00 154.0.00 20.0.00 -44.0.00 -79.0.00 -142.0.00 -143.0.00 77.0.00 -45.0.00 2.0.00 -158.0.00 -108.0.00 -109.0.00 -73.0.00 -78.0.00" />
    <route id="r37" edges="82.0.00 -102.0.00 -54.0.00" />
    <route id="r38" edges="111.0.00 -111.0.00 -49.0.00 -148.0.00 119.0.00 12.0.00 -146.0.00 -88.0.00 -89.0.00 -89.32.66 -89.45.84 -89.58.57 145.0.00 -120.0.00 -120.16.41 -120.18.84 -120.21.32 -123.0.00" />
    <route id="r39" edges="-59.258.05 -59.266.39 -59.274.76 -53.0.00 53.0.00 52.0.00 -68.0.00 -68.20.24 -68.35.15 -68.52.20 6.86.61 6.82.60 6.78.63 6.0.00 81.0.00 80.0.00 124.10.91 124.7.99 124.5.11 124.0.00 123.0.00 120.21.32 120.18.84 120.16.41 120.0.00 -145.0.00 89.58.57 89.45.84 89.32.66 89.0.00 88.0.00 87.0.00 32.0.00 28.61.75 28.27.82 28.15.89 28.4.23 28.0.00 27.0.00 -11.0.00 -128.0.00 114.0.00 -114.0.00" />
    <route id="r40" edges="105.0.00 -105.0.00 35.0.00 158.0.00 -2.0.00 128.0.00 11.0.00 -27.0.00 -28.0.00 -28.4.23 -28.15.89 -28.27.82 -28.61.75 -32.0.00 -87.0.00 -88.0.00 -89.0.00 -89.32.66 -89.45.84 -89.58.57 145.0.00" />
    <route id="r41" edges="-79.0.00 -142.0.00 -143.0.00 77.0.00 -45.0.00 128.0.00 11.0.00 -27.0.00 143.0.00 142.0.00 79.0.00 44.0.00 -133.0.00 -83.0.00 -83.4.05 -137.0.00 -138.0.00 -132.0.00 132.0.00 138.0.00 137.0.00 83.4.05 83.0.00 133.0.00 -38.0.00 -38.39.41 -38.44.19 -38.49.05 -42.0.00 -43.0.00 99.0.00 -130.0.00 -131.0.00 -129.0.00 -156.0.00 33.0.00 -134.0.00 -22.0.00 -96.0.00 100.0.00 -17.0.00 -17.3.13 -17.10.55 -17.18.21 -127.0.00" />
    <route id="r42" edges="-52.0.00 -53.0.00 53.0.00 52.0.00 -68.0.00 -68.20.24 -68.35.15 -68.52.20 6.86.61 6.82.60 6.78.63 6.0.00 81.0.00 80.0.00 124.10.91 124.7.99 124.5.11 124.0.00 123.0.00 120.21.32 120.18.84 120.16.41 120.0.00 -145.0.00 89.58.57 89.45.84 89.32.66 89.0.00 88.0.00 87.0.00" />
    <route id="r43" edges="105.0.00 -105.0.00 35.0.00 158.0.00 -2.0.00 128.0.00 11.0.00 -27.0.00 -28.0.00 -28.4.23 -28.15.89 -28.27.82 -28.61.75 -32.0.00 -87.0.00 -88.0.00 -89.0.00 -89.32.66 -89.45.84 -89.58.57 145.0.00 -120.0.00 -120.16.41 -120.18.84 -120.21.32 -123.0.00 -124.0.00 -124.5.11 -124.7.99 -124.10.91 -5.0.00" />
    <route id="r44" edges="48.0.00 100.0.00 -17.0.00 -17.3.13 -17.10.55 -17.18.21 -37.0.00 37.0.00 103.0.00 -140.0.00 -106.0.00 106.0.00 140.0.00" />
    <route id="r45" edges="28.27.82 28.15.89 28.4.23 28.0.00 27.0.00 -11.0.00 -128.0.00 45.0.00 -77.0.00 143.0.00 142.0.00 79.0.00 44.0.00 -133.0.00 -83.0.00 -83.4.05 -137.0.00 -138.0.00 -132.0.00 132.0.00 138.0.00 137.0.00 83.4.05 83.0.00 133.0.00 -38.0.00 -38.39.41 -38.44.19 -38.49.05 -42.0.00 -43.0.00 99.0.00 -130.0.00 -131.0.00 -129.0.00 -156.0.00 33.0.00 -134.0.00 -22.0.00 -96.0.00 100.0.00 -17.0.00 -17.3.13" />
    <route id="r46" edges="-77.0.00 143.0.00 142.0.00 79.0.00 44.0.00 -133.0.00 -83.0.00 -83.4.05 -137.0.00 -138.0.00 -132.0.00 132.0.00 138.0.00 137.0.00 83.4.05 83.0.00 133.0.00 -38.0.00 -38.39.41 -38.44.19 -38.49.05 -42.0.00 -43.0.00 99.0.00 -130.0.00 -131.0.00 -129.0.00 -156.0.00 33.0.00 -134.0.00 -22.0.00 -96.0.00 100.0.00 -17.0.00 -17.3.13 -17.10.55" />
    <route id="r47" edges="-67.0.00 -51.0.00 -15.0.00 -110.0.00 142.0.00 79.0.00 44.0.00 -133.0.00 -83.0.00 -83.4.05 -137.0.00 -138.0.00 -132.0.00 132.0.00 138.0.00 137.0.00 83.4.05" />
    <route id="r48" edges="66.0.00 28.61.75 28.27.82 28.15.89 28.4.23 28.0.00 27.0.00 -11.0.00 -128.0.00 2.0.00 -158.0.00 -108.0.00 -109.0.00 -73.0.00" />
    <route id="r49" edges="159.0.00 11.0.00 -27.0.00 143.0.00 142.0.00 79.0.00 44.0.00 -133.0.00 -83.0.00 -83.4.05 -137.0.00 -138.0.00 -132.0.00 132.0.00 138.0.00 98.0.00" />
    <route id="r50" edges="144.0.00 46.0.00 -46.0.00 -144.0.00 42.0.00 38.49.05 38.44.19 38.39.41 38.0.00 -20.0.00 -154.0.00 -155.0.00 -150.0.00 -150.13.85 -150.24.67 -150.35.27 -115.0.00 -115.36.52 -115.47.73 -115.56.53 -115.76.04 124.10.91" />
    <route id="r51" edges="-54.50.44 -54.58.11 -59.0.00 -59.12.92 -59.23.90 -59.258.05 -59.266.39 -59.274.76 -53.0.00 53.0.00 52.0.00 -68.0.00 -68.20.24 -68.35.15 -68.52.20 6.86.61 6.82.60 6.78.63 6.0.00 81.0.00 80.0.00 124.10.91 124.7.99 124.5.11 124.0.00 123.0.00 120.21.32 120.18.84 120.16.41 120.0.00 -145.0.00 89.58.57 89.45.84 89.32.66 89.0.00 88.0.00 146.0.00 -12.0.00 -119.0.00 148.0.00 49.0.00 159.0.00 11.0.00 -27.0.00 143.0.00 142.0.00 79.0.00 44.0.00 -133.0.00 -83.0.00 -83.4.05 -137.0.00 -138.0.00 -132.0.00 132.0.00 138.0.00 137.0.00 83.4.05 83.0.00 133.0.00 -38.0.00 -38.39.41 -38.44.19 -38.49.05 -42.0.00 -43.0.00 99.0.00 -130.0.00 -131.0.00 -129.0.00 -156.0.00 33.0.00 -134.0.00 -22.0.00 -96.0.00 100.0.00 -17.0.00" />
    <route id="r52" edges="54.0.00 102.0.00 -82.0.00 156.0.00 129.0.00 131.0.00 130.0.00 -99.0.00 43.0.00 42.0.00 38.49.05 38.44.19 38.39.41 38.0.00 -44.0.00 -79.0.00 -142.0.00 -143.0.00 77.0.00 -45.0.00 114.0.00 -114.0.00 45.0.00" />
    <route id="r53" edges="-140.0.00 -106.0.00 106.0.00 140.0.00 -103.0.00 17.18.21 17.10.55 17.3.13 17.0.00 -100.0.00 96.0.00 22.0.00 134.0.00 -33.0.00 156.0.00 129.0.00 131.0.00 130.0.00 -99.0.00 43.0.00 42.0.00 38.49.05 38.44.19 38.39.41 38.0.00 -20.0.00 -154.0.00 -155.0.00 -150.0.00 -150.13.85 -150.24.67 -150.35.27 -115.0.00 -115.36.52 -115.47.73 -115.56.53 -115.76.04 124.10.91 124.7.99 124.5.11 124.0.00 123.0.00 120.21.32 120.18.84 120.16.41 120.0.00 -145.0.00 -153.0.00 153.0.00 145.0.00 -120.0.00" />
    <route id="r54" edges="-150.0.00 -150.13.85 -150.24.67 -150.35.27 -135.0.00 -136.0.00 136.0.00 135.0.00 150.35.27 150.24.67 150.13.85 150.0.00 155.0.00 154.0.00 20.0.00 -44.0.00 -79.0.00 -142.0.00 -143.0.00 77.0.00 -45.0.00 2.0.00 -158.0.00 -35.0.00 -36.0.00 36.0.00 35.0.00 24.0.00 23.0.00 -23.0.00" />
    <route id="r55" edges="-28.0.00 -28.4.23 -28.15.89 -28.27.82 -28.61.75 -32.0.00 -87.0.00 146.0.00 -12.0.00 -119.0.00 148.0.00 49.0.00 159.0.00 11.0.00 -27.0.00 143.0.00 142.0.00 79.0.00 44.0.00 -133.0.00 -83.0.00 -83.4.05 -137.0.00 -138.0.00 -132.0.00 132.0.00 138.0.00 137.0.00 83.4.05 83.0.00 133.0.00 -38.0.00 -38.39.41 -38.44.19 -38.49.05 -42.0.00 -43.0.00 99.0.00 -130.0.00 -131.0.00 -129.0.00 -156.0.00 82.0.00 -102.0.00 21.0.00 127.0.00 17.18.21 17.10.55 17.3.13 17.0.00 -100.0.00 96.0.00 22.0.00 134.0.00 -33.0.00 156.0.00" />
    <route id="r56" edges="-124.7.99 -124.10.91 115.76.04 115.56.53 115.47.73 115.36.52 115.0.00 -135.0.00 -136.0.00 136.0.00 135.0.00" />
    <route id="r57" edges="136.0.00 135.0.00 150.35.27 150.24.67 150.13.85 150.0.00 155.0.00 154.0.00 20.0.00 -44.0.00 -79.0.00 -142.0.00 -143.0.00 77.0.00 -45.0.00 128.0.00 11.0.00 -27.0.00 143.0.00 142.0.00 79.0.00 44.0.00 -133.0.00 -83.0.00 -83.4.05 -137.0.00 -138.0.00 -132.0.00 132.0.00 138.0.00 137.0.00 83.4.05 83.0.00 133.0.00 -38.0.00 -38.39.41 -38.44.19 -38.49.05 -42.0.00 -43.0.00 99.0.00 -130.0.00 -131.0.00 -129.0.00 -156.0.00 33.0.00" />
    <route id="r58" edges="80.0.00 124.10.91 124.7.99 124.5.11 124.0.00 123.0.00 120.21.32 120.18.84 120.16.41 120.0.00 -145.0.00 89.58.57 89.45.84 89.32.66 89.0.00 88.0.00 146.0.00 -12.0.00 -119.0.00 148.0.00 49.0.00 159.0.00 11.0.00 -27.0.00 143.0.00 142.0.00 79.0.00 44.0.00 -133.0.00 -83.0.00 -83.4.05 -137.0.00 -138.0.00 -132.0.00 132.0.00 138.0.00 137.0.00 83.4.05 83.0.00 133.0.00 -38.0.00 -38.39.41 -38.44.19 -38.49.05 -42.0.00 -43.0.00 99.0.00 -130.0.00 -131.0.00 -129.0.00 -156.0.00 82.0.00 -102.0.00" />
    <route id="r59" edges="-150.24.67 -150.35.27 -115.0.00 -115.36.52 -115.47.73 -115.56.53 -115.76.04 -80.0.00 -81.0.00 -6.0.00 -6.78.63 -6.82.60 -6.86.61 68.52.20 68.35.15 68.20.24 68.0.00 -52.0.00 -65.0.00 65.0.00" />
    <route id="r60" edges="-78.0.00 -75.0.00 113.0.00 158.0.00 -2.0.00 128.0.00 11.0.00 -27.0.00 -28.0.00 -28.4.23 -28.15.89 -28.27.82 -28.61.75 -32.0.00 -87.0.00 -88.0.00 -89.0.00 -89.32.66 -89.45.84 -89.58.57 145.0.00 -120.0.00 -120.16.41 -120.18.84 -120.21.32 -123.0.00 -124.0.00 -124.5.11 -124.7.99 -124.10.91 115.76.04 115.56.53 115.47.73" />
    <route id="r61" edges="-150.13.85 -150.24.67 -150.35.27 -115.0.00 -115.36.52 -115.47.73 -115.56.53 -115.76.04 124.10.91 124.7.99 124.5.11 124.0.00 123.0.00 120.21.32 120.18.84 120.16.41 120.0.00 -145.0.00 89.58.57 89.45.84 89.32.66 89.0.00 88.0.00 87.0.00 32.0.00 -66.0.00 66.0.00 -32.0.00 -87.0.00 -88.0.00 -89.0.00 -89.32.66 -89.45.84" />
    <route id="r62" edges="17.10.55 17.3.13 17.0.00 -100.0.00 96.0.00 22.0.00 134.0.00 -33.0.00 156.0.00 129.0.00 131.0.00 130.0.00 -99.0.00 43.0.00 42.0.00 38.49.05 38.44.19 38.39.41 38.0.00 -20.0.00 -154.0.00 -155.0.00 -150.0.00 -150.13.85 -150.24.67 -150.35.27 101.0.00 -26.0.00 -72.0.00 -25.0.00" />
    <route id="r63" edges="28.0.00 27.0.00 -11.0.00 -128.0.00 2.0.00 -158.0.00 -35.0.00 -36.0.00 36.0.00 35.0.00 24.0.00 23.0.00 -23.0.00 1.0.00 -1.0.00" />
    <route id="r64" edges="-75.0.00 113.0.00 158.0.00 -2.0.00 128.0.00 11.0.00 -27.0.00 -28.0.00 -28.4.23 -28.15.89 -28.27.82 -28.61.75 -32.0.00 -87.0.00 146.0.00 -12.0.00 -119.0.00 148.0.00 49.0.00" />
    <route id="r65" edges="-36.0.00 36.0.00 35.0.00 158.0.00 -2.0.00 128.0.00 11.0.00 -27.0.00 -28.0.00 -28.4.23 -28.15.89 -28.27.82 -28.61.75 -32.0.00 -87.0.00 -88.0.00 -89.0.00 -89.32.66 -89.45.84 -89.58.57 145.0.00 -120.0.00 -120.16.41 -120.18.84 -120.21.32 -123.0.00 -124.0.00 -124.5.11 -124.7.99 -124.10.91 -80.0.00 -81.0.00 -6.0.00 -6.78.63 -6.82.60 -6.86.61 68.52.20 68.35.15 68.20.24 68.0.00 -52.0.00 -53.0.00 53.0.00" />
    <route id="r66" edges="-149.0.00 -109.0.00 -73.0.00 -74.0.00 -75.0.00 113.0.00 158.0.00 -2.0.00 45.0.00 -77.0.00 143.0.00 142.0.00 79.0.00 44.0.00 -133.0.00 -83.0.00 -83.4.05 -137.0.00 -138.0.00 -132.0.00 132.0.00 138.0.00 137.0.00 83.4.05 83.0.00 133.0.00 -38.0.00 -38.39.41 -38.44.19 -38.49.05 -42.0.00 -43.0.00 99.0.00 -130.0.00 -131.0.00 -129.0.00 -156.0.00 33.0.00 -134.0.00 -22.0.00 -96.0.00" />
    <route id="r67" edges="53.0.00 52.0.00 -68.0.00 -68.20.24 -68.35.15 -68.52.20 6.86.61 6.82.60 6.78.63 6.0.00 81.0.00 80.0.00 124.10.91 124.7.99 124.5.11 124.0.00 123.0.00 120.21.32 120.18.84 120.16.41 120.0.00 -145.0.00 89.58.57 89.45.84 89.32.66 89.0.00 88.0.00 146.0.00 -12.0.00 -119.0.00 148.0.00 49.0.00 159.0.00 11.0.00 -27.0.00 143.0.00 142.0.00 79.0.00 44.0.00 -133.0.00 -83.0.00 -83.4.05 -137.0.00 -138.0.00 -132.0.00 132.0.00 138.0.00 137.0.00 83.4.05 83.0.00 133.0.00 -38.0.00 -38.39.41 -38.44.19 -38.49.05 -42.0.00 -43.0.00" />
    <route id="r68" edges="-25.0.00 -101.0.00 -115.0.00 -115.36.52 -115.47.73 -115.56.53 -115.76.04 124.10.91 124.7.99 124.5.11 124.0.00 123.0.00 13.0.00" />
    <route id="r69" edges="-28.15.89 -28.27.82 -28.61.75 -32.0.00 -87.0.00 -88.0.00 -89.0.00 -89.32.66 -89.45.84 -89.58.57 145.0.00 -120.0.00 -120.16.41 -120.18.84 -120.21.32 -123.0.00 -124.0.00 -124.5.11 -124.7.99 -124.10.91 -80.0.00 -81.0.00 -6.0.00 -6.78.63 -6.82.60 -6.86.61 68.52.20 68.35.15 68.20.24 68.0.00" />
    <route id="r70" edges="6.78.63 6.0.00 81.0.00 80.0.00 115.76.04 115.56.53 115.47.73 115.36.52 115.0.00 -135.0.00 0.0.00 -0.0.00" />
    <route id="r71" edges="110.0.00 -110.0.00 142.0.00 79.0.00 44.0.00 -133.0.00 -83.0.00 -83.4.05 -137.0.00 -138.0.00 -132.0.00 132.0.00 138.0.00 137.0.00 83.4.05 83.0.00 133.0.00 -38.0.00 -38.39.41 -38.44.19 -38.49.05 -42.0.00 -43.0.00 99.0.00 -130.0.00 -3.0.00 3.0.00 130.0.00 -99.0.00 43.0.00" />
    <route id="r72" edges="124.7.99 124.5.11 124.0.00 123.0.00 120.21.32 120.18.84 120.16.41 120.0.00 -145.0.00 89.58.57 89.45.84 89.32.66 89.0.00 88.0.00 146.0.00 -12.0.00 -119.0.00 148.0.00 49.0.00 159.0.00 11.0.00 -27.0.00 143.0.00 142.0.00 79.0.00 44.0.00 -133.0.00 -83.0.00 -83.4.05 -137.0.00 -138.0.00 -132.0.00 132.0.00 138.0.00 137.0.00 83.4.05 83.0.00 133.0.00 -38.0.00 -38.39.41 -38.44.19 -38.49.05 -42.0.00 -43.0.00 99.0.00 -130.0.00 -131.0.00 -129.0.00 -156.0.00 82.0.00 -102.0.00 -54.0.00 -54.43.01 -54.50.44 -54.58.11 10.0.00" />
    <route id="r73" edges="-6.82.60 -6.86.61 -157.0.00 157.0.00 6.86.61 6.82.60 6.78.63 6.0.00 81.0.00 80.0.00 124.10.91 124.7.99 124.5.11 124.0.00 -112.0.00 112.0.00 -124.0.00" />
    <route id="r74" edges="-6.86.61 -157.0.00 157.0.00 6.86.61 6.82.60 6.78.63 6.0.00 81.0.00 80.0.00 124.10.91 124.7.99 124.5.11 124.0.00 123.0.00 120.21.32 120.18.84 120.16.41 120.0.00 -145.0.00 89.58.57 89.45.84 89.32.66 89.0.00 88.0.00 87.0.00" />
    <route id="r75" edges="-134.0.00 -22.0.00 -96.0.00 100.0.00 -17.0.00 -17.3.13 -17.10.55 -17.18.21 -127.0.00 -21.0.00 102.0.00 -82.0.00 156.0.00 129.0.00 131.0.00 130.0.00 -99.0.00 43.0.00 42.0.00 38.49.05 38.44.19 38.39.41 38.0.00 -133.0.00 -83.0.00 -83.4.05 -137.0.00" />
    <route id="r76" edges="4.0.00 159.0.00 11.0.00 -27.0.00 143.0.00 142.0.00 79.0.00 44.0.00 -133.0.00 -83.0.00 -83.4.05 -137.0.00 -138.0.00 -132.0.00 132.0.00 138.0.00 137.0.00 83.4.05 83.0.00 133.0.00 -38.0.00 -38.39.41 -38.44.19 -38.49.05 -42.0.00 -43.0.00 99.0.00 -130.0.00 -131.0.00 -129.0.00" />
    <route id="r77" edges="6.82.60 6.78.63 6.0.00 81.0.00 80.0.00 124.10.91 124.7.99 124.5.11 124.0.00 123.0.00 120.21.32 120.18.84 120.16.41 120.0.00 -145.0.00 89.58.57 89.45.84 89.32.66 89.0.00 88.0.00 146.0.00 -12.0.00 -119.0.00 148.0.00 49.0.00 159.0.00 11.0.00 -27.0.00 143.0.00 142.0.00 79.0.00 44.0.00 -133.0.00 -83.0.00 -83.4.05 -137.0.00 -138.0.00 -132.0.00 132.0.00 138.0.00 137.0.00 83.4.05 83.0.00 133.0.00 -20.0.00 -154.0.00 -155.0.00" />
    <route id="r78" edges="-158.0.00 -35.0.00 -36.0.00 36.0.00 35.0.00 158.0.00 -2.0.00 45.0.00 -77.0.00 143.0.00 142.0.00 79.0.00 44.0.00 -133.0.00 -83.0.00 -83.4.05 -137.0.00 -138.0.00 -132.0.00 132.0.00 138.0.00 137.0.00 83.4.05 83.0.00 133.0.00 -38.0.00 -38.39.41 -38.44.19 -38.49.05 -42.0.00 -43.0.00 99.0.00 -130.0.00 -131.0.00 -129.0.00 -156.0.00 33.0.00 -134.0.00 -22.0.00 -96.0.00 100.0.00 -17.0.00 -17.3.13 -17.10.55 -17.18.21 -37.0.00 37.0.00" />
    <route id="r79" edges="77.0.00 -45.0.00 128.0.00 11.0.00 -27.0.00 -28.0.00 -28.4.23 -28.15.89" />
    <route id="r80" edges="-77.0.00 143.0.00 142.0.00 79.0.00 44.0.00 -133.0.00 -83.0.00 -83.4.05 -137.0.00 -138.0.00 -132.0.00 132.0.00 138.0.00 137.0.00 83.4.05 83.0.00 133.0.00 -20.0.00 -154.0.00 -155.0.00 -150.0.00 -150.13.85 -150.24.67 -150.35.27 -115.0.00 -115.36.52 -115.47.73 -115.56.53 -115.76.04 -80.0.00 -81.0.00 -6.0.00 -6.78.63 -6.82.60 -6.86.61 -157.0.00 157.0.00 6.86.61 6.82.60 6.78.63 6.0.00" />
    <route id="r81" edges="156.0.00 129.0.00 131.0.00 130.0.00 -99.0.00 43.0.00 42.0.00 38.49.05 38.44.19 38.39.41 38.0.00 -20.0.00 -154.0.00 -155.0.00 -150.0.00 -150.13.85 -150.24.67 -150.35.27 -115.0.00 -115.36.52 -115.47.73 -115.56.53 -115.76.04 -5.0.00" />
    <route id="r82" edges="67.0.00 -67.0.00 -51.0.00 -15.0.00 -110.0.00 142.0.00 79.0.00 44.0.00 -133.0.00 -83.0.00 -83.4.05 -137.0.00 -138.0.00 -132.0.00 132.0.00 138.0.00 137.0.00 83.4.05 83.0.00 133.0.00 -44.0.00" />
    <route id="r83" edges="103.0.00 -140.0.00 -106.0.00 106.0.00 140.0.00 -103.0.00 17.18.21 17.10.55 17.3.13 17.0.00 -100.0.00 96.0.00 22.0.00 134.0.00 -33.0.00 156.0.00 129.0.00 131.0.00 130.0.00 -99.0.00 43.0.00 42.0.00 38.49.05 38.44.19 38.39.41 38.0.00 -44.0.00 -79.0.00 -142.0.00 -143.0.00 77.0.00 -45.0.00 128.0.00 11.0.00 -27.0.00 143.0.00" />
    <route id="r84" edges="132.0.00 138.0.00 137.0.00 83.4.05 83.0.00 133.0.00 -38.0.00 -38.39.41 -38.44.19 -38.49.05 -42.0.00 -43.0.00 99.0.00 -130.0.00 -131.0.00 -129.0.00 -156.0.00 82.0.00 -102.0.00 21.0.00 127.0.00 17.18.21 17.10.55 17.3.13" />
    <route id="r85" edges="59.0.00 54.58.11 54.50.44 54.43.01 54.0.00 102.0.00 -82.0.00 156.0.00 129.0.00 131.0.00 130.0.00 -99.0.00 43.0.00 42.0.00 38.49.05 38.44.19 38.39.41 38.0.00 -44.0.00 -79.0.00 -142.0.00 -143.0.00 77.0.00 -45.0.00 128.0.00 11.0.00 -27.0.00 27.0.00" />
    <route id="r86" edges="-154.0.00 -155.0.00 -150.0.00 -150.13.85 -150.24.67 -150.35.27 -115.0.00 -115.36.52 -115.47.73 -115.56.53 -115.76.04 -80.0.00 -81.0.00 -6.0.00 -6.78.63 -6.82.60 -6.86.61 68.52.20 68.35.15 68.20.24 68.0.00 -52.0.00 -65.0.00" />
    <route id="r87" edges="-59.12.92 -59.23.90 -59.258.05 -59.266.39 -59.274.76 -53.0.00 53.0.00 52.0.00 -68.0.00 -68.20.24 -68.35.15 -68.52.20 6.86.61 6.82.60 6.78.63 6.0.00 81.0.00 80.0.00 124.10.91 124.7.99 124.5.11 124.0.00 -112.0.00 112.0.00 -124.0.00 -124.5.11 -124.7.99" />
    <route id="r88" edges="115.56.53 115.47.73 115.36.52 115.0.00 -135.0.00 -136.0.00 136.0.00 135.0.00 150.35.27 150.24.67 150.13.85 150.0.00 155.0.00 154.0.00 20.0.00 -44.0.00 -79.0.00 -142.0.00 -143.0.00 77.0.00 -45.0.00 2.0.00 -158.0.00 -108.0.00" />
    <route id="r89" edges="80.0.00 124.10.91 124.7.99 124.5.11 124.0.00 123.0.00 120.21.32 120.18.84 120.16.41 120.0.00 -145.0.00 89.58.57 89.45.84 89.32.66 89.0.00 88.0.00 146.0.00 -12.0.00 -119.0.00 148.0.00 49.0.00 159.0.00 11.0.00 -27.0.00 143.0.00 142.0.00 79.0.00 44.0.00 -133.0.00 -83.0.00 -83.4.05 -137.0.00 -138.0.00 -132.0.00 132.0.00 138.0.00 137.0.00 83.4.05 83.0.00 133.0.00 -38.0.00 -38.39.41 -38.44.19 -38.49.05 -42.0.00 -43.0.00 99.0.00 -130.0.00 -131.0.00 -129.0.00 -156.0.00 82.0.00 -102.0.00 -54.0.00 -54.43.01 -54.50.44 -54.58.11 -59.0.00 -59.12.92" />
    <route id="r90" edges="-54.50.44 -54.58.11 -59.0.00 -59.12.92 -59.23.90 -59.258.05 -59.266.39 -59.274.76 -53.0.00 53.0.00 52.0.00 -68.0.00 -68.20.24 -68.35.15 -68.52.20 6.86.61 6.82.60 6.78.63 6.0.00 81.0.00 80.0.00 124.10.91 124.7.99 124.5.11 124.0.00 123.0.00 120.21.32 120.18.84 120.16.41 120.0.00 -145.0.00 89.58.57 89.45.84 89.32.66 89.0.00 88.0.00 146.0.00 -12.0.00 -119.0.00 148.0.00 49.0.00 159.0.00 11.0.00 -27.0.00 143.0.00 142.0.00 79.0.00 44.0.00 -133.0.00 -83.0.00 -83.4.05 -137.0.00 -138.0.00 -132.0.00 132.0.00 138.0.00 137.0.00 83.4.05 83.0.00 133.0.00 -38.0.00 -38.39.41 -38.44.19 -38.49.05 -42.0.00 -43.0.00 99.0.00 -130.0.00 -131.0.00 -129.0.00 -156.0.00 82.0.00 -102.0.00 21.0.00 127.0.00 17.18.21 17.10.55 17.3.13 17.0.00 -100.0.00" />
    <route id="r91" edges="-130.0.00 -3.0.00 3.0.00 130.0.00 -99.0.00 43.0.00 42.0.00 38.49.05 38.44.19 38.39.41 38.0.00 -20.0.00 -154.0.00 -155.0.00 -150.0.00 -150.13.85 -150.24.67 -150.35.27 -115.0.00 -115.36.52 -115.47.73 -115.56.53 -115.76.04 124.10.91 124.7.99 124.5.11 124.0.00 -112.0.00 112.0.00 -124.0.00 -124.5.11 -124.7.99 -124.10.91" />
    <route id="r92" edges="-59.258.05 -59.266.39 -59.274.76 -53.0.00 53.0.00 52.0.00 -68.0.00 -68.20.24 -68.35.15 -68.52.20 6.86.61 6.82.60 6.78.63 6.0.00 81.0.00 80.0.00 124.10.91 124.7.99 124.5.11 124.0.00 123.0.00 120.21.32 120.18.84 120.16.41 120.0.00 -145.0.00 89.58.57 89.45.84 89.32.66 89.0.00 88.0.00 87.0.00 32.0.00 28.61.75 28.27.82 28.15.89 28.4.23 28.0.00 27.0.00 -11.0.00 -128.0.00" />
    <route id="r93" edges="-114.0.00 128.0.00 11.0.00 -27.0.00 -28.0.00 -28.4.23 -28.15.89 -28.27.82 -28.61.75 -32.0.00 -87.0.00 -88.0.00 -89.0.00 -89.32.66 -89.45.84 -89.58.57 145.0.00 -120.0.00 -120.16.41 -120.18.84 -120.21.32 -123.0.00 -112.0.00 112.0.00" />
    <route id="r94" edges="-130.0.00 -3.0.00 3.0.00 130.0.00 -99.0.00 43.0.00 42.0.00 38.49.05 38.44.19 38.39.41 38.0.00 -20.0.00 -154.0.00 -155.0.00 -150.0.00 -150.13.85 -150.24.67 -150.35.27 -115.0.00 -115.36.52 -115.47.73 -115.56.53 -115.76.04 -80.0.00 -81.0.00 -6.0.00 -6.78.63 -6.82.60 -6.86.61 68.52.20 68.35.15 68.20.24 68.0.00 -52.0.00 -53.0.00 53.0.00 59.274.76 59.266.39 59.258.05 59.23.90 59.12.92 59.0.00 54.58.11" />