<edges>
    <edge id="e0" from="n0" to="n1" numLanes="1" speed="13.9"/>
</edges>
