<nodes>
    <node id="n0" x="0.0" y="0.0" type="priority"/>
    <node id="n1" x="500.0" y="0.0" type="priority"/>
</nodes>
