<?xml version='1.0' encoding='UTF-8'?>
<net xmlns:xsi="http://www.w3.org/2001/XMLSchema-instance" version="1.6" junctionCornerDetail="5" rectangularLaneCut="true" limitTurnSpeed="5.50" xsi:noNamespaceSchemaLocation="http://sumo.dlr.de/xsd/net_file.xsd">
    <location netOffset="962.48,403.82" convBoundary="0.00,0.00,1118.48,842.69" origBoundary="0.000000,0.000000,0.000000,0.000000" projParameter="+proj=tmerc +lat_0=34.0667 +lon_0=-118.44015 +k=1 +x_0=0 +y_0=0 +datum=WGS84 +units=m +geoidgrids=egm96_15.gtx +vunits=m +no_defs " />
    <type id="bidirectional" priority="1" speed="1.39" disallow="pedestrian tram rail_urban rail rail_electric rail_fast ship" width="3.65" />
    <type id="border" priority="0" speed="1.39" disallow="all" discard="1" width="0.10" />
    <type id="driving" priority="1" speed="13.89" disallow="pedestrian tram rail_urban rail rail_electric rail_fast ship" width="3.65" />
    <type id="entry" priority="1" speed="22.22" disallow="pedestrian tram rail_urban rail rail_electric rail_fast ship" width="3.65" />
    <type id="exit" priority="1" speed="22.22" disallow="pedestrian tram rail_urban rail rail_electric rail_fast ship" width="3.65" />
    <type id="median" priority="0" speed="1.39" disallow="all" discard="1" width="0.10" />
    <type id="mwyEntry" priority="1" speed="22.22" allow="private emergency authority army vip passenger hov taxi bus coach delivery truck trailer motorcycle evehicle custom1 custom2" width="3.65" />
    <type id="mwyExit" priority="1" speed="22.22" allow="private emergency authority army vip passenger hov taxi bus coach delivery truck trailer motorcycle evehicle custom1 custom2" width="3.65" />
    <type id="none" priority="0" speed="1.39" disallow="all" discard="1" width="1.00" />
    <type id="offRamp" priority="1" speed="22.22" allow="private emergency authority army vip passenger hov taxi bus coach delivery truck trailer motorcycle evehicle custom1 custom2" width="3.65" />
    <type id="onRamp" priority="1" speed="22.22" allow="private emergency authority army vip passenger hov taxi bus coach delivery truck trailer motorcycle evehicle custom1 custom2" width="3.65" />
    <type id="parking" priority="1" speed="1.39" disallow="pedestrian tram rail_urban rail rail_electric rail_fast ship" width="2.50" />
    <type id="rail" priority="3" speed="33.33" allow="rail_urban rail rail_electric rail_fast" width="3.65" />
    <type id="restricted" priority="0" speed="13.89" disallow="all" width="3.65" />
    <type id="roadWorks" priority="0" speed="1.39" allow="authority" width="3.65" />
    <type id="shoulder" priority="0" speed="1.39" disallow="all" discard="1" width="1.00" />
    <type id="special1" priority="1" speed="22.22" allow="custom1" discard="1" width="3.65" />
    <type id="special2" priority="1" speed="22.22" allow="custom2" discard="1" width="3.65" />
    <type id="special3" priority="1" speed="22.22" allow="custom1 custom2" discard="1" width="3.65" />
    <type id="stop" priority="1" speed="13.89" disallow="pedestrian tram rail_urban rail rail_electric rail_fast ship" width="3.65" />
    <type id="tram" priority="2" speed="13.89" allow="tram" width="3.65" />
    <edge id=":0.begin_0" function="internal">
        <lane id=":0.begin_0_0" index="0" disallow="pedestrian tram rail_urban rail rail_electric rail_fast ship" speed="3.82" length="5.11" width="3.50" shape="510.64,150.91,5.25 511.49,149.58,5.25 512.36,149.13,5.25 513.24,149.56,5.25 514.14,150.86,5.25" />
    </edge>
    <edge id=":1.begin_0" function="internal">
        <lane id=":1.begin_0_0" index="0" disallow="pedestrian tram rail_urban rail rail_electric rail_fast ship" speed="3.82" length="5.11" width="3.50" shape="545.69,552.38,12.70 547.05,553.17,12.70 547.54,554.02,12.70 547.16,554.92,12.70 545.90,555.87,12.70" />
    </edge>
    <edge id=":10.begin_0" function="internal">
        <lane id=":10.begin_0_0" index="0" disallow="pedestrian tram rail_urban rail rail_electric rail_fast ship" speed="3.82" length="5.11" width="3.50" shape="1084.45,351.59,23.36 1086.02,351.63,23.36 1086.86,352.13,23.36 1086.96,353.11,23.36 1086.32,354.55,23.36" />
    </edge>
    <edge id=":1029_0" function="internal">
        <lane id=":1029_0_0" index="0" disallow="pedestrian tram rail_urban rail rail_electric rail_fast ship" speed="10.31" length="26.68" width="3.50" shape="542.99,627.44,15.04 537.47,627.90,15.04 533.47,631.26,15.05 531.00,637.51,15.05 530.05,646.66,15.06" />
    </edge>
    <edge id=":1029_1" function="internal">
        <lane id=":1029_1_0" index="0" disallow="pedestrian tram rail_urban rail rail_electric rail_fast ship" speed="17.88" length="40.21" width="3.50" shape="542.99,627.44,15.04 535.39,628.05,14.99 523.12,630.13,14.90 510.85,632.32,14.82 503.22,633.24,14.77" />
    </edge>
    <edge id=":1029_2" function="internal">
        <lane id=":1029_2_0" index="0" disallow="pedestrian tram rail_urban rail rail_electric rail_fast ship" speed="13.09" length="32.52" width="3.50" shape="542.99,627.44,15.04 532.15,624.97,14.75 524.28,621.44,14.52 519.35,616.82,14.34 517.38,611.13,14.19" />
    </edge>
    <edge id=":1029_3" function="internal">
        <lane id=":1029_3_0" index="0" disallow="pedestrian tram rail_urban rail rail_electric rail_fast ship" speed="10.99" length="22.76" width="3.50" shape="527.68,610.31,14.19 529.00,615.42,14.38 532.09,619.39,14.57 536.93,622.25,14.78 543.53,623.98,15.04" />
    </edge>
    <edge id=":1029_4" function="internal">
        <lane id=":1029_4_0" index="0" disallow="pedestrian tram rail_urban rail rail_electric rail_fast ship" speed="17.88" length="40.08" width="3.50" shape="503.54,626.25,14.77 515.41,626.07,14.85 527.30,625.08,14.93 537.30,624.10,14.99 543.53,623.98,15.04" />
    </edge>
    <edge id=":1029_5" function="internal">
        <lane id=":1029_5_0" index="0" disallow="pedestrian tram rail_urban rail rail_electric rail_fast ship" speed="11.41" length="29.21" width="3.50" shape="503.38,629.75,14.77 512.09,631.13,14.86 518.28,634.39,14.93 521.93,639.53,14.99 523.05,646.54,15.06" />
    </edge>
    <edge id=":1029_6" function="internal">
        <lane id=":1029_6_0" index="0" disallow="pedestrian tram rail_urban rail rail_electric rail_fast ship" speed="7.76" length="19.16" width="3.50" shape="510.50,644.92,15.08 512.95,640.07,14.99 512.55,636.50,14.94 509.31,634.23,14.87 503.22,633.24,14.77" />
    </edge>
    <edge id=":104.begin_0" function="internal">
        <lane id=":104.begin_0_0" index="0" disallow="pedestrian tram rail_urban rail rail_electric rail_fast ship" speed="3.82" length="5.11" width="3.50" shape="318.38,17.49,1.58 319.27,16.19,1.58 320.15,15.76,1.58 321.02,16.21,1.58 321.88,17.54,1.58" />
    </edge>
    <edge id=":105.begin_0" function="internal">
        <lane id=":105.begin_0_0" index="0" disallow="pedestrian tram rail_urban rail rail_electric rail_fast ship" speed="3.82" length="5.11" width="3.50" shape="614.87,590.28,17.04 616.18,591.16,17.04 616.62,592.04,17.04 616.18,592.91,17.04 614.86,593.78,17.04" />
    </edge>
    <edge id=":106.end_0" function="internal">
        <lane id=":106.end_0_0" index="0" disallow="pedestrian tram rail_urban rail rail_electric rail_fast ship" speed="3.82" length="5.11" width="3.50" shape="1105.24,832.17,25.65 1104.75,833.67,25.65 1104.03,834.33,25.65 1103.07,834.15,25.65 1101.87,833.12,25.65" />
    </edge>
    <edge id=":1107_0" function="internal">
        <lane id=":1107_0_0" index="0" disallow="pedestrian tram rail_urban rail rail_electric rail_fast ship" speed="10.75" length="24.69" width="4.21" shape="496.50,451.89,10.91 495.08,446.22,10.78 491.65,442.13,10.65 486.21,439.61,10.51 478.76,438.66,10.34" />
    </edge>
    <edge id=":1107_1" function="internal">
        <lane id=":1107_1_0" index="0" disallow="pedestrian tram rail_urban rail rail_electric rail_fast ship" speed="13.89" length="28.26" width="3.50" shape="496.50,451.89,10.91 495.66,443.65,10.75 494.46,438.09,10.64 492.90,432.58,10.53 490.95,424.49,10.37" />
        <lane id=":1107_1_1" index="1" disallow="pedestrian tram rail_urban rail rail_electric rail_fast ship" speed="15.89" length="28.26" width="3.50" shape="499.99,451.66,10.91 499.14,443.27,10.75 497.93,437.62,10.64 496.35,432.01,10.53 494.38,423.78,10.37" />
    </edge>
    <edge id=":1107_3" function="internal">
        <lane id=":1107_3_0" index="0" disallow="pedestrian tram rail_urban rail rail_electric rail_fast ship" speed="12.22" length="36.18" width="4.00" shape="503.49,451.44,10.91 504.48,442.51,10.93 508.79,436.15,10.95 516.41,432.35,10.96 527.34,431.10,10.98" />
    </edge>
    <edge id=":1107_4" function="internal">
        <lane id=":1107_4_0" index="0" disallow="pedestrian tram rail_urban rail rail_electric rail_fast ship" speed="9.53" length="21.45" width="3.50" shape="527.31,441.95,10.98 519.73,442.50,10.96 514.39,444.18,10.94 511.30,447.01,10.93 510.47,450.99,10.91" />
    </edge>
    <edge id=":1107_5" function="internal">
        <lane id=":1107_5_0" index="0" disallow="pedestrian tram rail_urban rail rail_electric rail_fast ship" speed="15.89" length="48.57" width="4.21" shape="527.32,438.35,10.98 478.76,438.66,10.34" />
    </edge>
    <edge id=":1107_6" function="internal">
        <lane id=":1107_6_0" index="0" disallow="pedestrian tram rail_urban rail rail_electric rail_fast ship" speed="13.21" length="33.96" width="3.50" shape="527.33,434.85,10.98 515.33,434.09,10.77 506.41,431.87,10.60 500.57,428.19,10.48 497.80,423.06,10.37" />
    </edge>
    <edge id=":1107_7" function="internal">
        <lane id=":1107_7_0" index="0" disallow="pedestrian tram rail_urban rail rail_electric rail_fast ship" speed="11.19" length="12.31" width="4.21" shape="501.23,422.35,10.37 501.12,430.84,10.36 498.66,433.75,10.36" />
    </edge>
    <edge id=":1107_9" function="internal">
        <lane id=":1107_9_0" index="0" disallow="pedestrian tram rail_urban rail rail_electric rail_fast ship" speed="11.19" length="21.24" width="4.21" shape="498.66,433.75,10.36 496.87,435.87,10.36 489.19,438.21,10.35 478.76,438.66,10.34" />
    </edge>
    <edge id=":1107_8" function="internal">
        <lane id=":1107_8_0" index="0" disallow="pedestrian tram rail_urban rail rail_electric rail_fast ship" speed="12.88" length="35.93" width="3.50" shape="478.83,434.81,10.34 490.76,436.02,10.53 499.43,439.16,10.68 504.84,444.23,10.80 506.98,451.21,10.91" />
    </edge>
    <edge id=":111.begin_0" function="internal">
        <lane id=":111.begin_0_0" index="0" disallow="pedestrian tram rail_urban rail rail_electric rail_fast ship" speed="4.99" length="8.98" width="6.64" shape="2.11,558.15,30.88 -0.57,558.85,30.88 -2.23,558.40,30.88 -2.87,556.80,30.88 -2.48,554.06,30.88" />
    </edge>
    <edge id=":112.end_0" function="internal">
        <lane id=":112.end_0_0" index="0" disallow="pedestrian tram rail_urban rail rail_electric rail_fast ship" speed="3.82" length="5.11" width="3.50" shape="402.60,38.78,2.88 403.49,37.48,2.88 404.36,37.05,2.88 405.24,37.50,2.88 406.10,38.82,2.88" />
    </edge>
    <edge id=":114.begin_0" function="internal">
        <lane id=":114.begin_0_0" index="0" disallow="pedestrian tram rail_urban rail rail_electric rail_fast ship" speed="3.82" length="5.11" width="3.50" shape="166.35,779.41,24.06 165.47,780.71,24.06 164.59,781.14,24.06 163.72,780.69,24.06 162.85,779.37,24.06" />
    </edge>
    <edge id=":115.36.52_0" function="internal">
        <lane id=":115.36.52_0_0" index="0" disallow="pedestrian tram rail_urban rail rail_electric rail_fast ship" speed="17.88" length="0.10" width="3.50" shape="468.35,155.46,4.69 468.35,155.41,4.69" />
        <lane id=":115.36.52_0_1" index="1" disallow="pedestrian tram rail_urban rail rail_electric rail_fast ship" speed="17.88" length="0.10" width="3.50" shape="471.85,155.35,4.69 471.85,155.30,4.69" />
        <lane id=":115.36.52_0_2" index="2" disallow="pedestrian tram rail_urban rail rail_electric rail_fast ship" speed="17.88" length="0.10" width="3.50" shape="475.35,155.24,4.69 475.34,155.20,4.69" />
    </edge>
    <edge id=":115.36.52_3" function="internal">
        <lane id=":115.36.52_3_0" index="0" disallow="pedestrian tram rail_urban rail rail_electric rail_fast ship" speed="17.88" length="0.10" width="3.50" shape="489.34,154.77,4.69 489.34,154.82,4.69" />
        <lane id=":115.36.52_3_1" index="1" disallow="pedestrian tram rail_urban rail rail_electric rail_fast ship" speed="17.88" length="0.10" width="3.50" shape="485.84,154.88,4.69 485.84,154.92,4.69" />
        <lane id=":115.36.52_3_2" index="2" disallow="pedestrian tram rail_urban rail rail_electric rail_fast ship" speed="17.88" length="0.10" width="3.50" shape="482.34,154.98,4.69 482.34,155.03,4.69" />
        <lane id=":115.36.52_3_3" index="3" disallow="pedestrian tram rail_urban rail rail_electric rail_fast ship" speed="13.89" length="0.10" width="3.50" shape="478.84,155.09,4.69 478.84,155.14,4.69" />
    </edge>
    <edge id=":115.47.73_0" function="internal">
        <lane id=":115.47.73_0_0" index="0" disallow="pedestrian tram rail_urban rail rail_electric rail_fast ship" speed="17.88" length="8.04" width="3.50" shape="468.13,148.22,4.56 467.89,140.18,4.41" />
        <lane id=":115.47.73_0_1" index="1" disallow="pedestrian tram rail_urban rail rail_electric rail_fast ship" speed="17.88" length="8.04" width="3.50" shape="471.63,148.11,4.56 471.38,140.08,4.41" />
        <lane id=":115.47.73_0_2" index="2" disallow="pedestrian tram rail_urban rail rail_electric rail_fast ship" speed="17.88" length="8.04" width="3.50" shape="475.13,148.01,4.56 474.88,139.98,4.41" />
    </edge>
    <edge id=":115.47.73_3" function="internal">
        <lane id=":115.47.73_3_0" index="0" disallow="pedestrian tram rail_urban rail rail_electric rail_fast ship" speed="17.88" length="8.30" width="3.50" shape="486.81,139.64,4.41 487.20,142.05,4.45 487.96,143.61,4.48 488.72,145.18,4.51 489.12,147.58,4.56" />
        <lane id=":115.47.73_3_1" index="1" disallow="pedestrian tram rail_urban rail rail_electric rail_fast ship" speed="17.88" length="8.30" width="3.50" shape="483.31,139.74,4.41 483.71,142.15,4.45 484.46,143.72,4.48 485.22,145.28,4.51 485.62,147.69,4.56" />
        <lane id=":115.47.73_3_2" index="2" disallow="pedestrian tram rail_urban rail rail_electric rail_fast ship" speed="17.88" length="8.30" width="3.50" shape="479.82,139.84,4.41 480.21,142.25,4.45 480.97,143.82,4.48 481.72,145.39,4.52 482.12,147.79,4.56" />
        <lane id=":115.47.73_3_3" index="3" allow="emergency authority" speed="13.89" length="8.30" width="3.50" shape="477.35,139.91,4.41 477.58,142.30,4.45 477.98,143.91,4.48 478.39,145.52,4.51 478.62,147.90,4.56" />
    </edge>
    <edge id=":115.56.53_0" function="internal">
        <lane id=":115.56.53_0_0" index="0" disallow="pedestrian tram rail_urban rail rail_electric rail_fast ship" speed="17.88" length="7.42" width="3.50" shape="485.68,131.38,4.24 485.81,133.46,4.28 486.25,134.87,4.31 486.70,136.28,4.34 486.81,138.37,4.38" />
        <lane id=":115.56.53_0_1" index="1" disallow="pedestrian tram rail_urban rail rail_electric rail_fast ship" speed="17.88" length="7.42" width="3.50" shape="482.18,131.19,4.24 482.31,133.36,4.28 482.75,134.83,4.31 483.19,136.30,4.34 483.30,138.47,4.38" />
        <lane id=":115.56.53_0_2" index="2" disallow="pedestrian tram rail_urban rail rail_electric rail_fast ship" speed="17.88" length="7.42" width="3.50" shape="478.69,131.01,4.24 478.81,133.26,4.28 479.25,134.79,4.31 479.68,136.32,4.34 479.79,138.57,4.38" />
    </edge>
    <edge id=":115.56.53_3" function="internal">
        <lane id=":115.56.53_3_0" index="0" disallow="pedestrian tram rail_urban rail rail_electric rail_fast ship" speed="17.88" length="8.28" width="3.50" shape="467.85,138.91,4.39 467.54,136.36,4.35 467.00,134.64,4.32 466.52,132.92,4.29 466.41,130.37,4.24" />
        <lane id=":115.56.53_3_1" index="1" disallow="pedestrian tram rail_urban rail rail_electric rail_fast ship" speed="17.88" length="8.28" width="3.50" shape="471.35,138.81,4.39 471.04,136.34,4.35 470.50,134.68,4.31 470.02,133.02,4.28 469.91,130.55,4.24" />
        <lane id=":115.56.53_3_2" index="2" disallow="pedestrian tram rail_urban rail rail_electric rail_fast ship" speed="17.88" length="8.28" width="3.50" shape="474.85,138.71,4.39 474.54,136.32,4.34 474.00,134.72,4.31 473.52,133.12,4.28 473.40,130.73,4.24" />
        <lane id=":115.56.53_3_3" index="3" allow="emergency authority" speed="13.89" length="8.28" width="1.79" shape="476.60,138.66,4.39 476.04,130.87,4.24" />
    </edge>
    <edge id=":115.76.04_0" function="internal">
        <lane id=":115.76.04_0_0" index="0" disallow="pedestrian tram rail_urban rail rail_electric rail_fast ship" speed="17.88" length="2.99" width="3.50" shape="486.94,114.88,3.93 486.69,117.86,3.98" />
        <lane id=":115.76.04_0_1" index="1" disallow="pedestrian tram rail_urban rail rail_electric rail_fast ship" speed="17.88" length="2.99" width="3.50" shape="483.45,114.58,3.93 483.20,117.56,3.98" />
        <lane id=":115.76.04_0_2" index="2" disallow="pedestrian tram rail_urban rail rail_electric rail_fast ship" speed="17.88" length="2.99" width="3.50" shape="479.96,114.29,3.93 479.71,117.27,3.98" />
    </edge>
    <edge id=":115.76.04_3" function="internal">
        <lane id=":115.76.04_3_0" index="0" disallow="pedestrian tram rail_urban rail rail_electric rail_fast ship" speed="17.88" length="3.46" width="3.50" shape="467.46,116.24,3.98 467.28,115.28,3.97 466.74,114.68,3.96 466.21,114.09,3.94 466.03,113.12,3.93" />
        <lane id=":115.76.04_3_1" index="1" disallow="pedestrian tram rail_urban rail rail_electric rail_fast ship" speed="17.88" length="3.46" width="3.50" shape="470.95,116.54,3.98 470.77,115.57,3.97 470.23,114.98,3.96 469.70,114.39,3.94 469.51,113.42,3.93" />
        <lane id=":115.76.04_3_2" index="2" disallow="pedestrian tram rail_urban rail rail_electric rail_fast ship" speed="17.88" length="3.46" width="3.50" shape="474.44,116.83,3.98 474.25,115.86,3.97 473.72,115.27,3.96 473.19,114.68,3.94 473.00,113.71,3.93" />
        <lane id=":115.76.04_3_3" index="3" allow="emergency authority" speed="13.89" length="3.46" width="3.49" shape="477.08,117.05,3.98 477.02,116.14,3.97 476.78,115.52,3.96 476.54,114.91,3.94 476.48,114.00,3.93" />
    </edge>
    <edge id=":1168_0" function="internal">
        <lane id=":1168_0_0" index="0" disallow="pedestrian tram rail_urban rail rail_electric rail_fast ship" speed="9.99" length="22.00" width="3.50" shape="502.11,76.68,3.56 496.10,77.66,3.54 491.80,80.27,3.52 489.19,84.49,3.50 488.28,90.34,3.48" />
    </edge>
    <edge id=":1168_1" function="internal">
        <lane id=":1168_1_0" index="0" disallow="pedestrian tram rail_urban rail rail_electric rail_fast ship" speed="17.88" length="48.98" width="3.50" shape="502.11,76.68,3.56 489.56,76.32,3.47 475.82,75.14,3.37 463.01,73.88,3.28 453.27,73.22,3.21" />
    </edge>
    <edge id=":1168_2" function="internal">
        <lane id=":1168_2_0" index="0" disallow="pedestrian tram rail_urban rail rail_electric rail_fast ship" speed="13.27" length="41.53" width="3.50" shape="502.02,73.18,3.56 489.96,71.97,3.42 481.34,67.64,3.30 476.16,60.20,3.19 474.43,49.65,3.07" />
    </edge>
    <edge id=":1168_3" function="internal">
        <lane id=":1168_3_0" index="0" disallow="pedestrian tram rail_urban rail rail_electric rail_fast ship" speed="10.25" length="24.32" width="3.50" shape="488.43,49.64,3.07 489.27,57.00,3.22 491.79,62.21,3.33 495.98,65.27,3.44 501.84,66.18,3.56" />
    </edge>
    <edge id=":1168_4" function="internal">
        <lane id=":1168_4_0" index="0" disallow="pedestrian tram rail_urban rail rail_electric rail_fast ship" speed="17.88" length="40.65" width="3.50" shape="484.93,49.64,3.07 484.78,90.31,3.48" />
        <lane id=":1168_4_1" index="1" disallow="pedestrian tram rail_urban rail rail_electric rail_fast ship" speed="17.88" length="40.65" width="3.50" shape="481.43,49.65,3.07 481.28,90.28,3.48" />
    </edge>
    <edge id=":1168_6" function="internal">
        <lane id=":1168_6_0" index="0" disallow="pedestrian tram rail_urban rail rail_electric rail_fast ship" speed="12.92" length="11.03" width="3.50" shape="477.93,49.65,3.07 476.39,60.10,3.11 476.14,60.50,3.11" />
    </edge>
    <edge id=":1168_16" function="internal">
        <lane id=":1168_16_0" index="0" disallow="pedestrian tram rail_urban rail rail_electric rail_fast ship" speed="12.92" length="28.00" width="3.50" shape="476.14,60.50,3.11 471.77,67.51,3.14 464.07,71.88,3.17 453.27,73.22,3.21" />
    </edge>
    <edge id=":1168_7" function="internal">
        <lane id=":1168_7_0" index="0" disallow="pedestrian tram rail_urban rail rail_electric rail_fast ship" speed="10.38" length="24.80" width="3.50" shape="453.37,66.22,3.21 459.53,65.26,3.17 463.92,62.18,3.14 466.55,56.98,3.11 467.43,49.66,3.07" />
    </edge>
    <edge id=":1168_8" function="internal">
        <lane id=":1168_8_0" index="0" disallow="pedestrian tram rail_urban rail rail_electric rail_fast ship" speed="17.88" length="48.47" width="3.50" shape="453.37,66.22,3.21 501.84,66.18,3.56" />
    </edge>
    <edge id=":1168_9" function="internal">
        <lane id=":1168_9_0" index="0" disallow="pedestrian tram rail_urban rail rail_electric rail_fast ship" speed="13.05" length="39.22" width="3.50" shape="453.32,69.72,3.21 465.62,71.16,3.29 474.38,75.06,3.36 479.60,81.44,3.42 481.28,90.28,3.48" />
    </edge>
    <edge id=":1168_10" function="internal">
        <lane id=":1168_10_0" index="0" disallow="pedestrian tram rail_urban rail rail_electric rail_fast ship" speed="9.87" length="21.96" width="4.00" shape="467.30,90.16,3.48 466.46,84.47,3.41 463.83,80.37,3.35 459.42,77.87,3.29 453.22,76.97,3.21" />
    </edge>
    <edge id=":1168_11" function="internal">
        <lane id=":1168_11_0" index="0" disallow="pedestrian tram rail_urban rail rail_electric rail_fast ship" speed="10.50" length="24.99" width="3.50" shape="467.30,90.16,3.48 466.48,82.82,3.40 463.86,77.56,3.34 459.46,74.36,3.28 453.27,73.22,3.21" />
    </edge>
    <edge id=":1168_12" function="internal">
        <lane id=":1168_12_0" index="0" disallow="pedestrian tram rail_urban rail rail_electric rail_fast ship" speed="17.88" length="40.53" width="3.50" shape="467.30,90.16,3.48 467.43,49.66,3.07" />
        <lane id=":1168_12_1" index="1" disallow="pedestrian tram rail_urban rail rail_electric rail_fast ship" speed="17.88" length="40.53" width="3.50" shape="470.80,90.19,3.48 470.93,49.66,3.07" />
        <lane id=":1168_12_2" index="2" disallow="pedestrian tram rail_urban rail rail_electric rail_fast ship" speed="17.88" length="40.53" width="3.50" shape="474.30,90.22,3.48 474.43,49.65,3.07" />
    </edge>
    <edge id=":1168_15" function="internal">
        <lane id=":1168_15_0" index="0" disallow="pedestrian tram rail_urban rail rail_electric rail_fast ship" speed="12.62" length="9.26" width="3.50" shape="477.79,90.25,3.48 479.37,81.48,3.50 479.57,81.20,3.50" />
    </edge>
    <edge id=":1168_17" function="internal">
        <lane id=":1168_17_0" index="0" disallow="pedestrian tram rail_urban rail rail_electric rail_fast ship" speed="12.62" length="26.56" width="3.50" shape="479.57,81.20,3.50 483.91,75.12,3.52 491.44,71.19,3.54 501.93,69.68,3.56" />
    </edge>
    <edge id=":120.16.41_0" function="internal">
        <lane id=":120.16.41_0_0" index="0" disallow="pedestrian tram rail_urban rail rail_electric rail_fast ship" speed="17.88" length="3.43" width="4.00" shape="278.31,72.05,2.56 278.75,72.58,2.60 279.03,72.97,2.62 279.35,73.31,2.65 279.91,73.68,2.68" />
        <lane id=":120.16.41_0_1" index="1" disallow="pedestrian tram rail_urban rail rail_electric rail_fast ship" speed="3.48" length="3.43" width="3.50" shape="278.41,68.54,2.72 278.97,68.86,2.71 279.71,69.27,2.70 280.63,69.79,2.69 281.74,70.41,2.68" />
        <lane id=":120.16.41_0_2" index="2" disallow="pedestrian tram rail_urban rail rail_electric rail_fast ship" speed="13.89" length="3.43" width="3.50" shape="280.11,65.49,2.70 283.74,67.52,2.68" />
    </edge>
    <edge id=":120.16.41_3" function="internal">
        <lane id=":120.16.41_3_0" index="0" disallow="pedestrian tram rail_urban rail rail_electric rail_fast ship" speed="9.45" length="6.72" width="3.50" shape="283.85,60.31,2.69 286.34,60.48,2.68 288.43,60.93,2.68 290.12,61.64,2.68 291.41,62.63,2.67" />
        <lane id=":120.16.41_3_1" index="1" disallow="pedestrian tram rail_urban rail rail_electric rail_fast ship" speed="7.79" length="6.72" width="3.50" shape="283.80,63.81,2.68 285.59,63.91,2.68 287.04,64.15,2.68 288.14,64.54,2.67 288.89,65.06,2.67" />
    </edge>
    <edge id=":120.18.84_0" function="internal">
        <lane id=":120.18.84_0_0" index="0" disallow="pedestrian tram rail_urban rail rail_electric rail_fast ship" speed="3.01" length="1.73" width="4.00" shape="279.90,71.23,2.68 278.17,71.91,2.56" />
        <lane id=":120.18.84_0_1" index="1" disallow="pedestrian tram rail_urban rail rail_electric rail_fast ship" speed="17.88" length="1.73" width="3.50" shape="282.60,68.62,2.68 282.02,70.56,2.68" />
        <lane id=":120.18.84_0_2" index="2" allow="emergency authority" speed="13.89" length="1.73" width="3.50" shape="284.50,66.79,2.68 284.57,68.10,2.68" />
    </edge>
    <edge id=":120.18.84_3" function="internal">
        <lane id=":120.18.84_3_0" index="0" disallow="pedestrian tram rail_urban rail rail_electric rail_fast ship" speed="2.96" length="1.74" width="3.50" shape="291.55,62.78,2.67 292.11,61.06,2.66" />
        <lane id=":120.18.84_3_1" index="1" disallow="pedestrian tram rail_urban rail rail_electric rail_fast ship" speed="17.88" length="1.74" width="3.50" shape="289.03,65.21,2.67 289.61,63.24,2.68" />
        <lane id=":120.18.84_3_2" index="2" allow="emergency authority" speed="13.89" length="1.74" width="3.50" shape="287.15,67.02,2.67 287.09,65.67,2.68" />
    </edge>
    <edge id=":120.21.32_0" function="internal">
        <lane id=":120.21.32_0_0" index="0" disallow="pedestrian tram rail_urban rail rail_electric rail_fast ship" speed="17.88" length="5.77" width="4.00" shape="285.82,73.85,2.67 284.03,73.19,2.67 282.69,72.94,2.67 281.46,72.52,2.67 280.04,71.37,2.68" />
        <lane id=":120.21.32_0_1" index="1" disallow="pedestrian tram rail_urban rail rail_electric rail_fast ship" speed="17.88" length="5.77" width="3.50" shape="287.47,70.48,2.67 286.03,70.00,2.67 284.91,69.89,2.67 283.90,69.64,2.67 282.73,68.77,2.68" />
    </edge>
    <edge id=":120.21.32_2" function="internal">
        <lane id=":120.21.32_2_0" index="0" disallow="pedestrian tram rail_urban rail rail_electric rail_fast ship" speed="2.91" length="3.91" width="3.50" shape="291.95,60.98,2.66 291.54,60.73,2.66 291.48,60.56,2.66 291.78,60.46,2.65 292.42,60.43,2.65" />
        <lane id=":120.21.32_2_1" index="1" disallow="pedestrian tram rail_urban rail rail_electric rail_fast ship" speed="12.57" length="3.91" width="3.50" shape="295.09,66.43,2.39 290.71,63.91,2.66" />
        <lane id=":120.21.32_2_2" index="2" disallow="pedestrian tram rail_urban rail rail_electric rail_fast ship" speed="13.89" length="3.91" width="3.50" shape="293.55,69.57,2.64 289.02,67.34,2.67" />
    </edge>
    <edge id=":1208_0" function="internal">
        <lane id=":1208_0_0" index="0" disallow="pedestrian tram rail_urban rail rail_electric rail_fast ship" speed="17.88" length="35.23" width="4.57" shape="934.52,529.76,24.33 932.44,523.95,24.23 928.49,515.28,24.07 923.95,505.82,23.89 920.11,497.64,23.74" />
    </edge>
    <edge id=":1208_1" function="internal">
        <lane id=":1208_1_0" index="0" disallow="pedestrian tram rail_urban rail rail_electric rail_fast ship" speed="10.93" length="7.94" width="4.00" shape="934.52,529.76,24.33 934.26,522.31,24.37 934.45,521.86,24.37" />
    </edge>
    <edge id=":1208_6" function="internal">
        <lane id=":1208_6_0" index="0" disallow="pedestrian tram rail_urban rail rail_electric rail_fast ship" speed="10.93" length="20.42" width="4.00" shape="934.45,521.86,24.37 936.71,516.62,24.40 941.89,512.67,24.43 949.79,510.47,24.47" />
    </edge>
    <edge id=":1208_2" function="internal">
        <lane id=":1208_2_0" index="0" disallow="pedestrian tram rail_urban rail rail_electric rail_fast ship" speed="9.16" length="19.54" width="3.10" shape="950.32,514.18,24.47 945.40,515.70,24.43 942.24,518.58,24.40 940.84,522.83,24.37 941.19,528.46,24.33" />
    </edge>
    <edge id=":1208_3" function="internal">
        <lane id=":1208_3_0" index="0" disallow="pedestrian tram rail_urban rail rail_electric rail_fast ship" speed="13.81" length="34.75" width="3.50" shape="950.32,514.18,24.47 942.20,513.97,24.30 935.07,510.87,24.14 928.93,504.87,23.96 923.79,495.99,23.74" />
    </edge>
    <edge id=":1208_4" function="internal">
        <lane id=":1208_4_0" index="0" disallow="pedestrian tram rail_urban rail rail_electric rail_fast ship" speed="12.43" length="28.10" width="4.00" shape="930.00,493.19,23.74 934.43,501.36,23.98 939.20,506.96,24.18 944.32,510.00,24.33 949.79,510.47,24.47" />
    </edge>
    <edge id=":1208_5" function="internal">
        <lane id=":1208_5_0" index="0" disallow="pedestrian tram rail_urban rail rail_electric rail_fast ship" speed="17.88" length="36.29" width="3.50" shape="926.98,494.55,23.74 930.15,502.42,23.88 933.29,511.56,24.04 936.01,520.83,24.19 937.95,529.09,24.33" />
    </edge>
    <edge id=":1232_0" function="internal">
        <lane id=":1232_0_0" index="0" disallow="pedestrian tram rail_urban rail rail_electric rail_fast ship" speed="13.89" length="6692983.36" width="3.50" shape="1017.14,411.40,20078915.15 1013.64,404.08,20078915.15 1011.01,399.18,20078915.15 1007.88,394.58,20078915.15 1002.91,388.18,20078915.15" />
        <lane id=":1232_0_1" index="1" disallow="pedestrian tram rail_urban rail rail_electric rail_fast ship" speed="13.89" length="6692983.36" width="3.50" shape="1019.90,409.75,20078915.15 1005.76,386.14,20078915.15" />